ProjectFiles/Sumitomo/DSSfiles/SwitchesC591.dss
! Script for SwitchesC591.dss

! SWITCH DEFINITIONS
New Wiredata.switchwire GMR=0.02240 RAC=0.30600 NormAmps=531.0 Runits=mi radunits=in gmrunits=ft
New Linegeometry.switchgeom nconds=4 nphases=3 reduce=y cond=1 Wire=switchwire h=13.716 x=-1.2090 cond=2 Wire=switchwire h=13.716 x=-0.502 cond=3 Wire=switchwire h=13.716 x=0.5747 cond=4 Wire=switchwire h=14.648 x=0 !line geometry for siwtch
New Wiredata.switchwire1 GMR=0.00700 RAC=2.40970 NormAmps=120.0 Runits=mi radunits=in gmrunits=ft
New Linegeometry.switchgeom1 nconds=2 nphases=1 reduce=y cond=1 Wire=switchwire1  h=12.192 x=0 cond=2 Wire=switchwire1 h=10.668 x=0 ! line geom for switch 1ph
New Line.591_18428_MC_s Phases=3 Bus1=DJ_599552_1816_s.1.2.3 Bus2=DJ_599552_1816.1.2.3 Switch=y Geometry=switchgeom Length=1 Units=ft! closed switch
New Line.591_3221802_MC_s Phases=3 Bus1=SW_591_497857_s.1.2.3 Bus2=SW_591_497857.1.2.3 Switch=y Geometry=switchgeom Length=1 Units=ft! closed switch
New Line.591_2119403_MC_s Phases=3 Bus1=BP_591_1806578_s.1.2.3 Bus2=BP_591_1806578.1.2.3 Switch=y Geometry=switchgeom Length=1 Units=ft! closed switch
New Line.591_15764_UG_s Phases=3 Bus1=BP_591_25256_s.1.2.3 Bus2=BP_591_25256.1.2.3 Switch=y Geometry=switchgeom Length=1 Units=ft! closed switch
New Line.591_50884_OH_s Phases=3 Bus1=DJ_595374_1816_s.1.2.3 Bus2=DJ_595374_1816.1.2.3 Switch=y Geometry=switchgeom Length=1 Units=ft! closed switch
New Line.591_24496_MC_s Phases=3 Bus1=SW_326_2319_s.1.2.3 Bus2=SW_326_2319.1.2.3 Switch=y Geometry=switchgeom Length=1 Units=ft! closed switch
New Line.591_696808_MC_s Phases=3 Bus1=DW_591_46738_s.1.2.3 Bus2=DW_591_46738.1.2.3 Switch=y Geometry=switchgeom Length=1 Units=ft enabled=False! closed switch
New Line.591_42082_MC_s Phases=3 Bus1=DJ_595386_1816_s.1.2.3 Bus2=DJ_595386_1816.1.2.3 Switch=y Geometry=switchgeom Length=1 Units=ft! closed switch
